172
 C                 -3.58302953   -2.23011012    0.25880801
 C                 -2.87857940   -1.02139221    0.17754486
 C                 -1.48276023   -0.99718136    0.03755400
 C                 -0.75143922   -2.21892046   -0.02485307
 C                 -1.46234110   -3.45400184    0.06027893
 C                 -2.85697406   -3.43067747    0.20037158
 C                 -0.75799033    0.22920334   -0.05413759
 C                  0.66704023   -2.20115660   -0.16116889
 C                  1.39356533   -0.96789511   -0.26586288
 C                  0.59766845    0.24397422   -0.21274362
 C                  2.79237111   -1.01480645   -0.36333822
 H                  3.34671287   -0.08957254   -0.41287953
 C                  3.49275733   -2.23100706   -0.37953713
 C                  2.77454944   -3.43016102   -0.30466734
 C                  1.37981918   -3.43980215   -0.19086608
 C                  0.63924469   -4.67089939   -0.10641683
 C                 -0.71577880   -4.68156599    0.01316038
 H                 -1.25797533   -5.62143648    0.07828109
 H                  1.19567237   -5.60429108   -0.13832012
 H                 -3.38595298   -4.37558513    0.29299724
 H                  3.30280317   -4.37841945   -0.35533942
 H                 -3.41944908   -0.07946139    0.19805670
 H                 -1.28962186    1.17251100   -0.00821609
 N                  1.19856379    1.58333502   -0.35356106
 O                  2.25684446    1.69012513   -0.97628197
 O                  0.59003717    2.53566215    0.13569687
 C                 -5.06033296   -2.23767602    0.40226890
 C                 -5.85058388   -3.18570233   -0.21168916
 C                 -5.70998302   -1.27237512    1.20746378
 C                 -7.26247508   -3.12876321   -0.12983803
 H                 -5.40610415   -3.96564937   -0.82422186
 C                 -7.08896183   -1.20253481    1.39018054
 H                 -5.08848084   -0.56771327    1.74727788
 C                 -7.93046198   -2.08641712    0.60586236
 C                 -8.02750144   -4.08761048   -0.83657928
 C                 -7.50867167   -0.27649243    2.49269090
 C                 -9.36652557   -1.97926840    0.47572215
 C                 -9.39520238   -4.04750669   -0.81017532
 H                 -7.51000462   -4.85186356   -1.41009487
 C                 -8.61909435    0.60507365    2.43720556
 C                 -6.68148635   -0.19607836    3.62241312
 C                -10.10792714   -3.00883117   -0.15295578
 C                -10.03935434   -0.72238210    0.75876261
 H                 -9.95755883   -4.79599394   -1.35765741
 C                 -9.63852824    0.42887767    1.45508947
 C                 -8.80248994    1.63450490    3.40583859
 C                 -6.87007539    0.78195487    4.59925146
 H                 -5.87239863   -0.90879877    3.73882253
 C                -11.61229159   -3.19573442   -0.18396581
 C                -11.25454903   -0.33868217    0.14695964
 N                -10.56909230    1.46445036    1.24953337
 C                 -9.94206394    2.56633637    3.28345173
 C                 -7.89303824    1.71160504    4.47192615
 H                 -6.20286172    0.82385955    5.45534456
 C                -12.61891409   -2.24585479   -0.51000672
 C                -12.05937879   -4.50669756    0.04102260
 N                -12.31767205   -0.88203343   -0.53034998
 C                -11.55095534    0.97103172    0.42663314
 C                -10.77854627    2.51870410    2.14196951
 C                -10.25115790    3.50672667    4.28242802
 H                 -7.98860438    2.48873005    5.22141194
 C                -13.97043119   -2.60559206   -0.73251637
 C                -13.39297578   -4.88347329   -0.12390548
 H                -11.33724991   -5.25241889    0.35603780
 C                -13.27719693    0.13727900   -0.68387177
 C                -12.81418123    1.32647227   -0.10007498
 C                -11.85110108    3.42810461    1.93326192
 C                -11.34859526    4.34148673    4.15533015
 H                 -9.64894562    3.56218879    5.18154327
 C                -14.32972249   -3.95106313   -0.53724605
 C                -14.95384631   -1.57857450   -1.13407028
 H                -13.69108085   -5.91071990    0.06370839
 C                -14.57142843   -0.20633075   -1.17608382
 C                -13.30282589    2.69585925   -0.14409510
 C                -12.12562649    4.30152576    2.99648864
 C                -12.66647866    3.65819271    0.67541866
 H                -11.60187828    5.03534859    4.95136793
 H                -15.35783107   -4.26426537   -0.67531163
 C                -16.27948146   -1.90826058   -1.45635050
 C                -15.47145807    0.80305804   -1.60468479
 C                -14.23656189    3.10749824   -1.17133187
 H                -12.97542128    4.97024557    2.90957034
 C                -12.82026884    5.03233408    0.34759023
 C                -17.19975192   -0.91639534   -1.76628896
 H                -16.60665858   -2.94154107   -1.44945781
 C                -16.79956798    0.41815528   -1.83992216
 C                -15.09227410    2.21618858   -1.93218688
 C                -14.29928099    4.51044729   -1.49574708
 C                -13.57068710    5.44343728   -0.71996740
 H                -12.27413172    5.76860601    0.92704663
 H                -18.23422100   -1.18038641   -1.96679637
 H                -17.53333446    1.17672605   -2.08938724
 C                -15.74637089    2.73161029   -3.05240854
 C                -15.04299818    4.97624855   -2.60903324
 H                -13.61015685    6.49461624   -0.99275651
 C                -15.71791994    4.09096414   -3.40893034
 H                -16.31675464    2.05096829   -3.67437206
 H                -15.04186690    6.04187367   -2.82337832
 H                -16.25206193    4.42790562   -4.29294281
 C                  4.97416100   -2.23665290   -0.47851565
 C                  5.74526242   -3.17566239    0.17299144
 C                  5.64810320   -1.28402831   -1.27908161
 C                  7.15871856   -3.12358190    0.12946665
 H                  5.28251641   -3.94470776    0.78573815
 C                  7.03192155   -1.22182805   -1.42537056
 H                  5.04373713   -0.58256389   -1.84167293
 C                  7.84963005   -2.09606440   -0.60570570
 C                  7.90084155   -4.07318509    0.87240708
 C                  7.48425776   -0.31397405   -2.53025297
 C                  9.28240179   -1.99270232   -0.43991664
 C                  9.26883125   -4.03938631    0.88083874
 H                  7.36494808   -4.82553334    1.44485036
 C                  8.59743809    0.56306758   -2.46083495
 C                  6.68592033   -0.24659908   -3.68121801
 C                 10.00264875   -3.01492898    0.22447854
 C                  9.96863583   -0.74377247   -0.72608687
 H                  9.81362791   -4.78069407    1.45524208
 C                  9.59141844    0.39778929   -1.45082681
 C                  8.81043331    1.57609448   -3.44050913
 C                  6.90348467    0.71545109   -4.66771816
 H                  5.87460889   -0.95522174   -3.80584644
 C                 11.50474811   -3.20838381    0.29599762
 C                 11.16987596   -0.35564435   -0.08961895
 N                 10.52146767    1.43231466   -1.23820029
 C                  9.95157426    2.50408599   -3.30447716
 C                  7.92804099    1.64150942   -4.52984385
 H                  6.25601006    0.74884091   -5.53916190
 C                 12.50789217   -2.25818264    0.63179626
 C                 11.95073351   -4.52479504    0.10287736
 N                 12.21322670   -0.89295611    0.62248658
 C                 11.47977947    0.94796129   -0.38267960
 C                 10.75863624    2.47111168   -2.14155580
 C                 10.29110994    3.42631297   -4.31043312
 H                  8.04541669    2.40728331   -5.28785163
 C                 13.85164429   -2.62082395    0.89356196
 C                 13.27795694   -4.90525032    0.30663204
 H                 11.23269867   -5.27192773   -0.21811089
 C                 13.17389963    0.12417983    0.78372091
 C                 12.73137193    1.30589471    0.16958691
 C                 11.83010311    3.37882537   -1.92048784
 C                 11.38915585    4.25800786   -4.16904733
 H                  9.71203593    3.46963920   -5.22521573
 C                 14.20896223   -3.97084656    0.72833240
 C                 14.83005196   -1.59216031    1.30311214
 H                 13.57537434   -5.93675187    0.14255554
 C                 14.45378090   -0.21749868    1.31310403
 C                 13.22590124    2.67341883    0.20390711
 C                 12.13603609    4.23370688   -2.99016190
 C                 12.61475280    3.62537419   -0.64637030
 H                 11.66599043    4.93762572   -4.96955525
 H                 15.23186132   -4.28637451    0.89656770
 C                 16.14535297   -1.92303995    1.66402626
 C                 15.34847098    0.79432368    1.74739292
 C                 14.13645844    3.09727834    1.24693698
 H                 12.98650124    4.90005795   -2.89215753
 C                 12.76681220    5.00381370   -0.33647943
 C                 17.06310206   -0.93078817    1.98026184
 H                 16.46669628   -2.95801807    1.68251956
 C                 16.66830900    0.40673615    2.02159810
 C                 14.96907376    2.21445308    2.04250495
 C                 14.19848907    4.50506506    1.55008354
 C                 13.49318200    5.42868377    0.74226694
 H                 12.23800103    5.73298984   -0.94044651
 H                 18.09086386   -1.19647852    2.21086703
 H                 17.39975806    1.16579085    2.27639667
 C                 15.59890565    2.74508428    3.16960814
 C                 14.91798603    4.98548742    2.67300352
 H                 13.53083762    6.48389712    0.99934546
 C                 15.56918018    4.11024739    3.50305549
 H                 16.15051134    2.07205200    3.81633451
 H                 14.91713511    6.05449392    2.86988044
 H                 16.08389813    4.45907704    4.39398119
