172
 C                  3.49278879   -2.23097172   -0.37948956
 C                  2.79241277   -1.01476653   -0.36336678
 C                  1.39359813   -0.96784193   -0.26593353
 C                  0.66707593   -2.20110233   -0.16119445
 C                  1.37984713   -3.43975709   -0.19083943
 C                  2.77457396   -3.43012622   -0.30461512
 C                  0.59772226    0.24403851   -0.21288180
 C                 -0.75139984   -2.21884380   -0.02490298
 C                 -1.48271432   -0.99709237    0.03743843
 C                 -0.75793657    0.22927674   -0.05428276
 C                 -2.87853733   -1.02128911    0.17739902
 H                 -3.41939991   -0.07935339    0.19789222
 C                 -3.58299415   -2.22999314    0.25869858
 C                 -2.85695004   -3.43057382    0.20033175
 C                 -1.46231819   -3.45391463    0.06026237
 C                 -0.71576616   -4.68148874    0.01319559
 C                  0.63925985   -4.67084550   -0.10636471
 H                  1.19567478   -5.60424499   -0.13823484
 H                 -1.25798117   -5.62134763    0.07833686
 H                  3.30283517   -4.37838697   -0.35522668
 H                 -1.28955254    1.17258907   -0.00841545
 H                 -3.38595025   -4.37546904    0.29296953
 N                  1.19863480    1.58335121   -0.35371369
 O                  0.59006751    2.53572527    0.13533943
 O                  2.25702730    1.69004787   -0.97623985
 H                  3.34677679   -0.08954533   -0.41294126
 C                  4.97418453   -2.23663788   -0.47840793
 C                  5.74524818   -3.17556685    0.17326074
 C                  5.64815977   -1.28412455   -1.27907482
 C                  7.15870485   -3.12350586    0.12977505
 H                  5.28246198   -3.94454378    0.78606579
 C                  7.03198664   -1.22194080   -1.42530183
 H                  5.04381556   -0.58273115   -1.84178113
 C                  7.84965127   -2.09608090   -0.60549422
 C                  7.90079561   -4.07302898    0.87285312
 C                  7.48437418   -0.31422580   -2.53027351
 C                  9.28241735   -1.99271501   -0.43965580
 C                  9.26878484   -4.03925013    0.88132170
 H                  7.36487395   -4.82530456    1.44536540
 C                  8.59757483    0.56279683   -2.46093624
 C                  6.68605035   -0.24695312   -3.68125457
 C                 10.00263515   -3.01487643    0.22486393
 C                  9.96867377   -0.74382084   -0.72593657
 H                  9.81355033   -4.78049771    1.45583015
 C                  9.59151978    0.39763345   -1.45087454
 C                  8.81061524    1.57570170   -3.44072664
 C                  6.90364443    0.71498854   -4.66785208
 H                  5.87472267   -0.95556963   -3.80581666
 C                 11.50473758   -3.20832081    0.29644095
 C                 11.16986723   -0.35561089   -0.08943261
 N                 10.52156679    1.43218117   -1.23833671
 C                  9.95179249    2.50366241   -3.30479528
 C                  7.92822790    1.64103119   -4.53007070
 H                  6.25617114    0.74830690   -5.53929959
 C                 12.50786349   -2.25808601    0.63219408
 C                 11.95075172   -4.52473099    0.10337226
 N                 12.21319823   -0.89285472    0.62276443
 C                 11.47980667    0.94794675   -0.38266816
 C                 10.75880732    2.47083460   -2.14183587
 C                 10.29141406    3.42570933   -4.31088801
 H                  8.04562317    2.40673037   -5.28815069
 C                 13.85161307   -2.62069930    0.89401071
 C                 13.27798266   -4.90515231    0.30713474
 H                 11.23273905   -5.27188905   -0.21760266
 C                 13.17389741    0.12428295    0.78385726
 C                 12.73140955    1.30591848    0.16955755
 C                 11.83029854    3.37854589   -1.92086838
 C                 11.38948839    4.25738129   -4.16959045
 H                  9.71239048    3.46889825   -5.22570877
 C                 14.20896514   -3.97071650    0.72881594
 C                 14.82999793   -1.59200866    1.30355007
 H                 13.57542636   -5.93664852    0.14307285
 C                 14.45374772   -0.21734106    1.31335466
 C                 13.22597713    2.67343612    0.20369784
 C                 12.13631195    4.23324232   -2.99066640
 C                 12.61490091    3.62527440   -0.64675760
 H                 11.66639070    4.93685397   -4.97019823
 H                 15.23188075   -4.28620211    0.89702953
 C                 16.14525592   -1.92287511    1.66462901
 C                 15.34842426    0.79452032    1.74757397
 C                 14.13649474    3.09742803    1.24670793
 H                 12.98679986    4.89957469   -2.89273219
 C                 12.76699000    5.00375964   -0.33708049
 C                 17.06300246   -0.93059941    1.98080061
 H                 16.46656007   -2.95786204    1.68331257
 C                 16.66823867    0.40693967    2.02191159
 C                 14.96904312    2.21470189    2.04245668
 C                 14.19855183    4.50526001    1.54963665
 C                 13.49331975    5.42877505    0.74163505
 H                 12.23823048    5.73285718   -0.94118702
 H                 18.09073945   -1.19627981    2.21152831
 H                 17.39969350    1.16601314    2.27663656
 C                 15.59880151    2.74548630    3.16952887
 C                 14.91799254    4.98583527    2.67252658
 H                 13.53099928    6.48402794    0.99854810
 C                 15.56909376    4.11070168    3.50276422
 H                 16.15033417    2.07253860    3.81640597
 H                 14.91716417    6.05487249    2.86923609
 H                 16.08375541    4.45965227    4.39367493
 C                 -5.06029744   -2.23754181    0.40212102
 C                 -5.85053493   -3.18556688   -0.21185570
 C                 -5.70996037   -1.27224234    1.20730781
 C                 -7.26242677   -3.12863920   -0.13001473
 H                 -5.40603773   -3.96552181   -0.82436797
 C                 -7.08894156   -1.20240769    1.39000375
 H                 -5.08846872   -0.56757544    1.74713190
 C                 -7.93042806   -2.08629952    0.60568168
 C                 -8.02744048   -4.08750163   -0.83675188
 C                 -7.50865103   -0.27640745    2.49254248
 C                 -9.36649557   -1.97918693    0.47555020
 C                 -9.39514110   -4.04742594   -0.81034281
 H                 -7.50993043   -4.85175166   -1.41025972
 C                 -8.61913362    0.60508774    2.43714637
 C                 -6.68136850   -0.19593268    3.62218999
 C                -10.10788036   -3.00875836   -0.15312523
 C                -10.03935974   -0.72232691    0.75863481
 H                 -9.95748617   -4.79593019   -1.35781303
 C                 -9.63859031    0.42889306    1.45505289
 C                 -8.80254333    1.63447400    3.40582496
 C                 -6.86994436    0.78208012    4.59904998
 H                 -5.87220691   -0.90858439    3.73851429
 C                -11.61224222   -3.19569195   -0.18411203
 C                -11.25455983   -0.33863327    0.14683933
 N                -10.56918634    1.46445203    1.24954937
 C                 -9.94221147    2.56620596    3.28355778
 C                 -7.89300237    1.71164148    4.47183087
 H                 -6.20264370    0.82404152    5.45507251
 C                -12.61888482   -2.24583141   -0.51014035
 C                -12.05930169   -4.50666180    0.04089088
 N                -12.31767571   -0.88199705   -0.53048279
 C                -11.55102059    0.97104832    0.42660344
 C                -10.77871036    2.51860846    2.14208614
 C                -10.25138127    3.50645878    4.28264081
 H                 -7.98855458    2.48876818    5.22131657
 C                -13.97039510   -2.60559814   -0.73263696
 C                -13.39289815   -4.88345833   -0.12398581
 H                -11.33715202   -5.25236954    0.35588988
 C                -13.27726022    0.13728123   -0.68389293
 C                -12.81428638    1.32645433   -0.10003905
 C                -11.85134011    3.42794589    1.93348509
 C                -11.34888832    4.34114254    4.15564104
 H                 -9.64917671    3.56185786    5.18176528
 C                -14.32966846   -3.95106663   -0.53731794
 C                -14.95383155   -1.57860958   -1.13421695
 H                -13.69098592   -5.91070302    0.06366538
 C                -14.57147336   -0.20634765   -1.17614437
 C                -13.30301581    2.69581787   -0.14393940
 C                -12.12592097    4.30124217    2.99679878
 C                -12.66673885    3.65810928    0.67567270
 H                -11.60222627    5.03489588    4.95175584
 H                -15.35778514   -4.26427060   -0.67531967
 C                -16.27942405   -1.90834869   -1.45661379
 C                -15.47153168    0.80302446   -1.60471660
 C                -14.23677441    3.10749364   -1.17114034
 H                -12.97576540    4.96990857    2.90994969
 C                -12.82064947    5.03227720    0.34801031
 C                -17.19972768   -0.91650866   -1.76653999
 H                -16.60653295   -2.94165166   -1.44984216
 C                -16.79961179    0.41806843   -1.84004375
 C                -15.09241947    2.21620145   -1.93209257
 C                -14.29960357    4.51047359   -1.49539879
 C                -13.57109933    5.44343786   -0.71950287
 H                -12.27458359    5.76852865    0.92756014
 H                -18.23416877   -1.18053920   -1.96714021
 H                -17.53340722    1.17661962   -2.08948403
 C                -15.74653758    2.73169135   -3.05226869
 C                -15.04334637    4.97633768   -2.60864166
 H                -13.61066480    6.49464593   -0.99216622
 C                -15.71818252    4.09108523   -3.40864706
 H                -16.31686884    2.05107407   -3.67430869
 H                -15.04230252    6.04198686   -2.82286716
 H                -16.25233816    4.42807998   -4.29263083
