172
 C                 -3.68101502   -2.10791477    0.27477943
 C                 -2.99753757   -0.89039839    0.41188493
 C                 -1.59891853   -0.82000839    0.34851527
 C                 -0.84691706   -2.01251727    0.14227740
 C                 -1.53287035   -3.25694435    0.00732158
 C                 -2.93248605   -3.27823684    0.07686787
 C                 -0.88366876    0.41838980    0.47659100
 C                  0.57598418   -1.96409092    0.07493227
 C                  1.25989468   -0.71409642    0.19869409
 C                  0.47505564    0.47636399    0.40494369
 C                  2.66853867   -0.73632012    0.15290065
 C                  3.41971002   -1.90879710   -0.04135677
 C                  2.71409737   -3.10856564   -0.18379202
 C                  1.31621111   -3.16848495   -0.11797339
 C                  0.60178872   -4.40897361   -0.25185003
 C                 -0.75756771   -4.45161123   -0.18994064
 H                 -1.28288686   -5.39810341   -0.29068555
 H                  1.17587305   -5.31957091   -0.40251887
 H                 -3.44578489   -4.23294816   -0.00105032
 H                  3.27369286   -4.01946048   -0.37564482
 H                 -3.56217178    0.02879967    0.54316228
 H                 -1.45441226    1.33080202    0.62990493
 H                  0.97796169    1.43150460    0.48802012
 N                  3.39055631    0.52714179    0.38838873
 O                  4.18046543    0.55616348    1.32655065
 O                  3.14856183    1.47391620   -0.36414959
 C                 -5.16370125   -2.15352866    0.33007093
 C                 -5.89807494   -3.00516804   -0.46734874
 C                 -5.87901853   -1.33086741    1.23216364
 C                 -7.31306951   -2.97867235   -0.46251025
 H                 -5.40299687   -3.67610578   -1.16438359
 C                 -7.26751772   -1.30613522    1.34010790
 H                 -5.30429521   -0.70919017    1.90866288
 C                 -8.04439569   -2.07050121    0.38223887
 C                 -8.01548314   -3.82614042   -1.35282970
 C                 -7.76902730   -0.56324183    2.54266078
 C                 -9.47284633   -1.96325780    0.18475850
 C                 -9.38294377   -3.80808952   -1.40263836
 H                 -7.44950939   -4.48570544   -2.00511258
 C                 -8.89203345    0.30395074    2.55373636
 C                 -7.01100222   -0.64626232    3.71963065
 C                -10.15472456   -2.89324886   -0.63687039
 C                -10.18778152   -0.77308696    0.61525843
 H                 -9.89611706   -4.46957229   -2.09204998
 C                 -9.85038721    0.26518731    1.49789550
 C                 -9.15178121    1.17289582    3.65336770
 C                 -7.27638075    0.16936843    4.82003709
 H                 -6.19592712   -1.35951414    3.77523472
 C                -11.65030228   -3.09362139   -0.78516425
 C                -11.37496168   -0.31639700   -0.00154469
 N                -10.78924999    1.30867065    1.39560440
 C                -10.30001001    2.10119487    3.60382188
 C                 -8.30828490    1.09668630    4.77245702
 H                 -6.66172417    0.08740049    5.71186652
 C                -12.65806500   -2.11851257   -1.02006941
 C                -12.08000765   -4.42945839   -0.79178246
 N                -12.38672101   -0.76404818   -0.81376035
 C                -11.71351468    0.93274830    0.45274570
 C                -11.06909897    2.21590711    2.42034658
 C                -10.68348868    2.87832145    4.71147292
 H                 -8.46375951    1.74983003    5.62328103
 C                -13.98637673   -2.45766071   -1.37479867
 C                -13.39352369   -4.79418542   -1.09098866
 H                -11.35995971   -5.20527503   -0.55401947
 C                -13.35689161    0.25490605   -0.86942098
 C                -12.95218563    1.34841311   -0.08828132
 C                -12.14583159    3.13436860    2.28620312
 C                -11.78784757    3.71103794    4.64509511
 H                -10.13479918    2.80463559    5.64295272
 C                -14.32634264   -3.82179083   -1.41031760
 C                -14.96774277   -1.39404364   -1.67253398
 H                -13.67831191   -5.84209598   -1.08170131
 C                -14.61354877   -0.02660655   -1.48324437
 C                -13.46476947    2.70333840    0.04276527
 C                -12.49683464    3.83635411    3.44929788
 C                -12.89410166    3.54016825    1.03106954
 H                -12.09944772    4.27537974    5.51901120
 H                -15.33782521   -4.12288489   -1.65581321
 C                -16.26551372   -1.68753017   -2.11921315
 C                -15.50941664    1.02462661   -1.80747070
 C                -14.34772330    3.25301625   -0.96454725
 H                -13.35321065    4.50123604    3.41285110
 C                -13.05655627    4.94599430    0.90188475
 C                -17.18846092   -0.67206955   -2.32819088
 H                -16.56957045   -2.71386215   -2.28927711
 C                -16.81377771    0.66314121   -2.17510685
 C                -15.14180229    2.47549118   -1.89773273
 C                -14.42053534    4.68786633   -1.08059369
 C                -13.75476416    5.50308810   -0.13451556
 H                -12.55818841    5.59404219    1.61456618
 H                -18.20413653   -0.91574611   -2.62661139
 H                -17.54863652    1.44143703   -2.34917217
 C                -15.74290007    3.14472800   -2.96496371
 C                -15.11088723    5.30595857   -2.15352972
 H                -13.80006401    6.58264689   -0.25039569
 C                -15.72242604    4.54224153   -3.11357159
 H                -16.26369113    2.55780677   -3.71308029
 H                -15.11938756    6.39159199   -2.20698766
 H                -16.21348994    5.00103515   -3.96719760
 C                  4.90276995   -1.92466311   -0.15695239
 C                  5.65398220   -2.86529244    0.51116192
 C                  5.57843331   -1.04098420   -1.02988664
 C                  7.06580858   -2.87515011    0.41406241
 H                  5.17758163   -3.58698159    1.16930100
 C                  6.95702736   -1.04607070   -1.22892152
 H                  4.98440477   -0.33344609   -1.59645451
 C                  7.76834736   -1.91640814   -0.39852644
 C                  7.79518887   -3.82105310    1.17335161
 C                  7.40252099   -0.20854391   -2.39057377
 C                  9.21024879   -1.87152590   -0.29520695
 C                  9.16248970   -3.85031666    1.12483652
 H                  7.25112915   -4.51860302    1.80436338
 C                  8.55404201    0.62046140   -2.40403061
 C                  6.56142715   -0.15522430   -3.51144378
 C                  9.91183252   -2.89391065    0.38876117
 C                  9.93840124   -0.67030659   -0.66788503
 H                  9.69803813   -4.58714393    1.71346286
 C                  9.58113791    0.45445714   -1.42817026
 C                  8.76929576    1.58041970   -3.43525024
 C                  6.77915845    0.75286919   -4.54773720
 H                  5.71606840   -0.83174803   -3.57250005
 C                 11.40550415   -3.15397282    0.40824823
 C                 11.18111077   -0.30967398   -0.09850093
 N                 10.56342053    1.45389882   -1.30000537
 C                  9.95318851    2.46231050   -3.38618504
 C                  7.84674349    1.63788986   -4.49120230
 H                  6.09881748    0.77709773   -5.39410674
 C                 12.46299148   -2.23693764    0.65767795
 C                 11.78385413   -4.49723009    0.26111742
 N                 12.22887458   -0.86172724    0.59527169
 C                 11.53476363    0.96453974   -0.46245221
 C                 10.80653006    2.44232266   -2.25645238
 C                 10.28910065    3.32525170   -4.44462666
 H                  7.96575064    2.36437509   -5.28667609
 C                 13.79913461   -2.64879729    0.88258620
 C                 13.10057741   -4.92869669    0.42835049
 H                 11.02000344   -5.22454813    0.00709141
 C                 13.23854884    0.11683117    0.67216060
 C                 12.82250503    1.28947106    0.02309583
 C                 11.92439160    3.30979463   -2.11881176
 C                 11.42688979    4.11213407   -4.38440067
 H                  9.67442455    3.35578534   -5.33648278
 C                 14.08924276   -4.01989722    0.76665299
 C                 14.83782621   -1.64864086    1.20499147
 H                 13.34481139   -5.97926878    0.30179327
 C                 14.52282726   -0.25917323    1.16634144
 C                 13.37612482    2.63378143   -0.02265224
 C                 12.22123511    4.10400457   -3.23670345
 C                 12.77183128    3.57510908   -0.88946960
 H                 11.69866972    4.74436561   -5.22450559
 H                 15.10363448   -4.37404721    0.90735766
 C                 16.15105708   -2.02267233    1.52946429
 C                 15.47744000    0.72906840    1.51964438
 C                 14.34592891    3.06046766    0.96435075
 H                 13.10304470    4.73493370   -3.20260266
 C                 12.99579577    4.95731886   -0.64719786
 C                 17.12338466   -1.06013070    1.76397082
 H                 16.42722129   -3.06941061    1.58333547
 C                 16.78923219    0.29445431    1.75992970
 C                 15.17166752    2.17608893    1.76547207
 C                 14.48040936    4.47564916    1.20258566
 C                 13.78328168    5.39467963    0.38256827
 H                 12.47457549    5.68331301   -1.26155190
 H                 18.14713324   -1.36186542    1.96638096
 H                 17.56268078    1.03002205    1.95188762
 C                 15.86849929    2.72545662    2.84303969
 C                 15.26428809    4.97076858    2.27491424
 H                 13.87667236    6.45711948    0.59106904
 C                 15.91034779    4.10341554    3.11713603
 H                 16.41638157    2.05651007    3.49707393
 H                 15.31663938    6.04612440    2.42462645
 H                 16.47470066    4.46636154    3.97161876
