172
 C                  3.41972791   -1.90887291   -0.04090845
 C                  2.66855510   -0.73643970    0.15361725
 C                  1.25990970   -0.71422908    0.19938417
 C                  0.57599600   -1.96419499    0.07530404
 C                  1.31623092   -3.16854521   -0.11786469
 C                  2.71412101   -3.10860412   -0.18363622
 C                  0.47504228    0.47616484    0.40594568
 C                 -0.84690658   -2.01265446    0.14259787
 C                 -1.59893086   -0.82020919    0.34911465
 C                 -0.88368142    0.41815798    0.47754480
 C                 -2.99754625   -0.89062275    0.41240873
 H                 -3.56219386    0.02853516    0.54390294
 C                 -3.68101695   -2.10811435    0.27496411
 C                 -2.93246531   -3.27837393    0.07680047
 C                 -1.53284339   -3.25705295    0.00731306
 C                 -0.75753180   -4.45166761   -0.19020708
 C                  0.60182889   -4.40900768   -0.25205619
 H                  1.17592188   -5.31956663   -0.40292126
 H                 -1.28283925   -5.39814003   -0.29119818
 H                  0.97792640    1.43128778    0.48931366
 H                  3.27372406   -4.01945200   -0.37569807
 H                 -1.45443238    1.33052518    0.63109553
 H                 -3.44573855   -4.23307867   -0.00137272
 N                  3.39058862    0.52697304    0.38940710
 O                  3.14848925    1.47396357   -0.36279977
 O                  4.18070240    0.55567268    1.32741088
 C                  4.90277293   -1.92469975   -0.15661298
 C                  5.65403782   -2.86539341    0.51136061
 C                  5.57835499   -1.04098102   -1.02955925
 C                  7.06585594   -2.87523837    0.41414624
 H                  5.17768104   -3.58713816    1.16946972
 C                  6.95692687   -1.04606472   -1.22871676
 H                  4.98426260   -0.33341952   -1.59604030
 C                  7.76832424   -1.91643190   -0.39842605
 C                  7.79530926   -3.82117539    1.17332229
 C                  7.40232017   -0.20851680   -2.39039296
 C                  9.21023254   -1.87152130   -0.29520174
 C                  9.16260712   -3.85038831    1.12473516
 H                  7.25130780   -4.51878796    1.80431531
 C                  8.55382299    0.62050860   -2.40391428
 C                  6.56113732   -0.15518863   -3.51119433
 C                  9.91188729   -2.89391906    0.38867285
 C                  9.93832588   -0.67026809   -0.66789202
 H                  9.69820393   -4.58722740    1.71330094
 C                  9.58098354    0.45450691   -1.42812100
 C                  8.76899122    1.58048337   -3.43513467
 C                  6.77878331    0.75292447   -4.54749061
 H                  5.71577666   -0.83171660   -3.57218931
 C                 11.40557146   -3.15392807    0.40809090
 C                 11.18106531   -0.30961853   -0.09858224
 N                 10.56324595    1.45397379   -1.29999268
 C                  9.95287286    2.46239107   -3.38613196
 C                  7.84636344    1.63795671   -4.49101972
 H                  6.09838197    0.77716012   -5.39381157
 C                 12.46304726   -2.23686460    0.65748100
 C                 11.78396420   -4.49716679    0.26089534
 N                 12.22888849   -0.86166151    0.59510543
 C                 11.53465853    0.96461647   -0.46251776
 C                 10.80628034    2.44240888   -2.25644978
 C                 10.28870393    3.32534548   -4.44458734
 H                  7.96530375    2.36445701   -5.28649072
 C                 13.79921886   -2.64868715    0.88230386
 C                 13.10070568   -4.92859913    0.42807190
 H                 11.02013494   -5.22450378    0.00686219
 C                 13.23853334    0.11692791    0.67197539
 C                 12.82241539    1.28957472    0.02296507
 C                 11.92413082    3.30990339   -2.11886850
 C                 11.42647539    4.11225861   -4.38441860
 H                  9.67397385    3.35586668   -5.33640700
 C                 14.08935791   -4.01977879    0.76635248
 C                 14.83791003   -1.64850537    1.20463398
 H                 13.34496332   -5.97916289    0.30149150
 C                 14.52285806   -0.25904768    1.16605315
 C                 13.37600015    2.63389737   -0.02280120
 C                 12.22088501    4.10413945   -3.23676579
 C                 12.77163448    3.57522268   -0.88957231
 H                 11.69819097    4.74450551   -5.22453282
 H                 15.10375810   -4.37391146    0.90703712
 C                 16.15119424   -2.02249431    1.52894464
 C                 15.47746587    0.72921831    1.51930738
 C                 14.34585404    3.06059440    0.96414634
 H                 13.10267835    4.73509386   -3.20270562
 C                 12.99558584    4.95743290   -0.64729850
 C                 17.12350319   -1.05992412    1.76340609
 H                 16.42742185   -3.06922127    1.58270326
 C                 16.78929289    0.29464808    1.75946787
 C                 15.17166260    2.17622154    1.76520026
 C                 14.48031237    4.47577520    1.20239712
 C                 13.78311922    5.39480002    0.38243004
 H                 12.47432127    5.68342409   -1.26161923
 H                 18.14728490   -1.36162660    1.96569598
 H                 17.56272634    1.03023908    1.95139864
 C                 15.86854352    2.72558182    2.84273783
 C                 15.26423856    4.97089131    2.27469302
 H                 13.87649816    6.45723982    0.59093602
 C                 15.91036742    4.10353745    3.11686073
 H                 16.41648868    2.05663733    3.49672247
 H                 15.31657191    6.04624526    2.42442497
 H                 16.47475813    4.46648156    3.97131932
 C                 -5.16369976   -2.15372929    0.33015714
 C                 -5.89802695   -3.00523058   -0.46745591
 C                 -5.87908732   -1.33121764    1.23233637
 C                 -7.31302114   -2.97871151   -0.46273725
 H                 -5.40290834   -3.67606540   -1.16456132
 C                 -7.26759302   -1.30647486    1.34015548
 H                 -5.30441782   -0.70968227    1.90901240
 C                 -8.04440305   -2.07065113    0.38207761
 C                 -8.01537715   -3.82602562   -1.35325048
 C                 -7.76921061   -0.56379417    2.54279971
 C                 -9.47282702   -1.96332186    0.18446814
 C                 -9.38283238   -3.80791713   -1.40319333
 H                 -7.44936519   -4.48551728   -2.00557431
 C                 -8.89217622    0.30345217    2.55390364
 C                 -7.01134237   -0.64709056    3.71984836
 C                -10.15465941   -2.89316170   -0.63736900
 C                -10.18775686   -0.77319584    0.61509941
 H                 -9.89595778   -4.46927853   -2.09275696
 C                 -9.85041398    0.26491548    1.49794935
 C                 -9.15201220    1.17220460    3.65366479
 C                 -7.27682679    0.16833212    4.82038569
 H                 -6.19630829   -1.36039259    3.77541259
 C                -11.65023090   -3.09345356   -0.78583653
 C                -11.37486092   -0.31636113   -0.00173974
 N                -10.78922729    1.30844842    1.39574177
 C                -10.30017628    2.10058571    3.60414034
 C                 -8.30867125    1.09571819    4.77285316
 H                 -6.66229923    0.08614779    5.71228398
 C                -12.65793694   -2.11826842   -1.02066881
 C                -12.07999135   -4.42927283   -0.79268587
 N                -12.38656003   -0.76384441   -0.81412484
 C                -11.71341101    0.93272081    0.45272768
 C                -11.06913273    2.21553419    2.42060077
 C                -10.68372395    2.87756126    4.71187274
 H                 -8.46422825    1.74868930    5.62379470
 C                -13.98623581   -2.45731241   -1.37554705
 C                -13.39349766   -4.79390314   -1.09204976
 H                -11.35999559   -5.20515340   -0.55497477
 C                -13.35669391    0.25515060   -0.86969589
 C                -12.95201640    1.34851847   -0.08834765
 C                -12.14580761    3.13406865    2.28649634
 C                -11.78803506    3.71034344    4.64551611
 H                -10.13512531    2.80370942    5.64339273
 C                -14.32625416   -3.82142246   -1.41130035
 C                -14.96754586   -1.39361578   -1.67318233
 H                -13.67832937   -5.84180334   -1.08294062
 C                -14.61331641   -0.02622110   -1.48365626
 C                -13.46455224    2.70344593    0.04286410
 C                -12.49689968    3.83587945    3.44966986
 C                -12.89394386    3.54009595    1.03135599
 H                -12.09969236    4.27456599    5.51948884
 H                -15.33773159   -4.12243694   -1.65691576
 C                -16.26530269   -1.68698828   -2.11997390
 C                -15.50912544    1.02509373   -1.80777547
 C                -14.34740685    3.25331311   -0.96443155
 H                -13.35324425    4.50080333    3.41324404
 C                -13.05636386    4.94594671    0.90239801
 C                -17.18820331   -0.67146242   -2.32884284
 H                -16.56938942   -2.71328380   -2.29020680
 C                -16.81348063    0.66371182   -2.17553563
 C                -15.14145203    2.47596129   -1.89779068
 C                -14.42019222    4.68818416   -1.08023183
 C                -13.75448084    5.50323145   -0.13396132
 H                -12.55804966    5.59386401    1.61523583
 H                -18.20387178   -0.91505900   -2.62735293
 H                -17.54830282    1.44206083   -2.34951713
 C                -15.74248012    3.14539150   -2.96493898
 C                -15.11046711    5.30647219   -2.15310456
 H                -13.79975878    6.58281120   -0.24965385
 C                -15.72196497    4.54293019   -3.11331119
 H                -16.26325022    2.55860922   -3.71317858
 H                -15.11894813    6.39211498   -2.20637557
 H                -16.21297388    5.00187907   -3.96688529
