74
 C                  4.59394908   -4.27745187    2.17321990
 C                  4.23661692   -3.10065938    1.45812585
 C                  2.94402937   -2.98135210    0.80693280
 C                  2.09638293   -4.15914834    0.78677280
 C                  2.47932453   -5.26879373    1.56795886
 C                  3.70214924   -5.33405825    2.27012991
 C                  2.57623334   -1.68885243    0.27069576
 C                  3.54292481   -0.64435137    0.17050675
 C                  4.82190153   -0.83454304    0.76986780
 C                  5.14473711   -2.00644904    1.43160485
 C                  3.40999951    0.65660838   -0.58271231
 C                  2.37095036    1.63305323   -0.49851430
 C                  2.47932453    2.92897812   -1.07947834
 C                  3.64837153    3.22411421   -1.82221340
 C                  4.64222789    2.25979769   -1.99680941
 C                  4.52563139    1.00266192   -1.37807836
 N                  1.13734739    1.28962366    0.06928374
 C                  0.00190529    2.12272881    0.02742674
 C                  0.16444002    3.50215407   -0.29246328
 C                  1.38984220    3.90928887   -0.91164033
 C                 -1.18281420    1.33522761    0.07207674
 C                 -0.69816098    0.00953106    0.15356975
 C                  0.69816098   -0.00953106    0.15356975
 N                 -1.13734739   -1.28962366    0.06928374
 C                 -0.00190529   -2.12272881    0.02742674
 C                  1.18281420   -1.33522761    0.07207674
 C                 -0.16444002   -3.50215407   -0.29246328
 C                 -1.38984220   -3.90928887   -0.91164033
 C                 -2.47932453   -2.92897812   -1.07947834
 C                 -2.37095036   -1.63305323   -0.49851430
 C                 -3.40999951   -0.65660838   -0.58271231
 C                 -4.52563139   -1.00266192   -1.37807836
 C                 -4.64222789   -2.25979769   -1.99680941
 C                 -3.64837153   -3.22411421   -1.82221340
 C                 -1.49850412   -5.24096045   -1.37185037
 C                 -0.41125439   -6.11624165   -1.27463836
 C                  0.77568695   -5.70909215   -0.63876231
 C                  0.90955333   -4.41767628   -0.08465827
 C                  1.49850412    5.24096045   -1.37185037
 C                  0.41125439    6.11624165   -1.27463836
 C                 -0.77568695    5.70909215   -0.63876231
 C                 -0.90955333    4.41767628   -0.08465827
 C                 -3.54292481    0.64435137    0.17050675
 C                 -2.57623334    1.68885243    0.27069576
 C                 -2.94402937    2.98135210    0.80693280
 C                 -4.23661692    3.10065938    1.45812585
 C                 -5.14473711    2.00644904    1.43160485
 C                 -4.82190153    0.83454304    0.76986780
 C                 -4.59394908    4.27745187    2.17321990
 C                 -3.70214924    5.33405825    2.27012991
 C                 -2.47932453    5.26879373    1.56795886
 C                 -2.09638293    4.15914834    0.78677280
 H                  2.42702708    5.59584864   -1.82669040
 H                  0.48975134    7.13021030   -1.68049839
 H                 -1.61567412    6.40717277   -0.56656931
 H                  5.31521314    0.25760902   -1.51664138
 H                  5.52121083    2.48414012   -2.60948246
 H                  3.75900095    4.19962466   -2.30162344
 H                 -6.10278536    2.10193171    1.95518989
 H                 -5.53640007    0.00544463    0.75721880
 H                 -5.57500657    4.31731019    2.66034994
 H                 -1.79447335    6.12061133    1.62050886
 H                 -3.94616436    6.22331707    2.86083496
 H                 -2.42702708   -5.59584864   -1.82669040
 H                 -0.48975134   -7.13021030   -1.68049839
 H                  1.61567412   -6.40717277   -0.56656931
 H                 -5.31521314   -0.25760902   -1.51664138
 H                 -5.52121083   -2.48414012   -2.60948246
 H                 -3.75900095   -4.19962466   -2.30162344
 H                  6.10278536   -2.10193171    1.95518989
 H                  5.53640007   -0.00544463    0.75721880
 H                  5.57500657   -4.31731019    2.66034994
 H                  1.79447335   -6.12061133    1.62050886
 H                  3.94616436   -6.22331707    2.86083496
