208
 C                  3.48573953   -0.68064422    0.77253467
 C                  2.71243245   -1.85336769    0.72104466
 C                  2.80094493    0.53893827    0.80811544
 C                  1.30371326   -1.85469841    0.67302821
 C                  1.40256674    0.61473358    0.80570518
 H                  3.37910597    1.45825671    0.80972685
 C                  0.64071149   -0.58903512    0.73134921
 C                  0.49620547   -3.04588669    0.60602902
 C                  0.71048549    1.87372216    0.85891120
 C                 -0.78275568   -0.52371740    0.70872469
 C                 -0.86373690   -2.97269121    0.58462724
 H                  0.98396534   -4.01102658    0.55042499
 C                 -0.64941212    1.93267487    0.84144319
 H                  1.30179544    2.78400296    0.91498633
 C                 -1.55815220   -1.71650305    0.63156575
 C                 -1.44596829    0.73870011    0.75913846
 H                 -1.45108374   -3.88552693    0.52482937
 H                 -1.15881977    2.89209857    0.88461025
 C                 -2.95687898   -1.62700724    0.58935861
 C                 -2.84615292    0.77762286    0.72422938
 C                 -3.61832687   -0.39037094    0.63043604
 H                 -3.53600020   -2.54122216    0.49149110
 H                 -3.34272372    1.74178235    0.78992372
 N                  3.40402583   -3.15423688    0.78068864
 O                  3.22241447   -3.94330624   -0.15022574
 O                  4.10873924   -3.37114990    1.76078376
 C                 24.67676620    1.00400890   -0.98240865
 C                 24.00382435    1.75575658   -0.02203585
 C                 22.60114676    1.64656727    0.13283171
 C                 21.88800231    2.39439075    1.09838719
 C                 20.50246948    2.28333591    1.24799979
 C                 19.77899543    3.03107641    2.21820890
 C                 18.40237638    2.91785309    2.36338440
 C                 17.67007587    3.66632131    3.33914222
 C                 16.30477021    3.55206901    3.47982300
 C                 15.56198818    4.30618735    4.46647184
 C                 14.21773382    4.18284106    4.59088865
 C                 23.98721840    0.12564290   -1.81512874
 C                 22.58404507   -0.02590669   -1.70763610
 C                 21.88203319    0.74456394   -0.72104314
 C                 20.47548371    0.61462159   -0.59002877
 C                 19.77603612    1.37883445    0.39033622
 C                 18.37442053    1.25158283    0.52246831
 C                 17.67147142    2.01422316    1.50404423
 C                 16.27451159    1.88758814    1.63464347
 C                 15.56573259    2.65014019    2.61966992
 C                 14.17663887    2.52398359    2.74723378
 C                 13.45604630    3.29176306    3.74260156
 C                 12.08983648    3.15691523    3.85356279
 C                 21.85411078   -0.90778194   -2.53809805
 C                 20.46789563   -1.05298699   -2.42943738
 C                 19.75878018   -0.28009813   -1.43875976
 C                 18.35682237   -0.40946664   -1.31163418
 C                 17.65655328    0.35654031   -0.32933904
 C                 16.25325729    0.22980002   -0.20105363
 C                 15.55374233    0.99403304    0.78105203
 C                 14.15161513    0.86871064    0.90805289
 C                 13.44912837    1.63283131    1.89257898
 C                 12.05143912    1.50845191    2.01628687
 C                 11.33821058    2.27755577    3.01067847
 C                  9.95971205    2.14362987    3.11579413
 C                 19.72675548   -1.93630354   -3.26272538
 C                 18.34920015   -2.07537071   -3.15305249
 C                 17.63591949   -1.30228788   -2.16164304
 C                 16.23833402   -1.42814740   -2.03669747
 C                 15.53549873   -0.66183938   -1.05413416
 C                 14.13299799   -0.78513080   -0.92895549
 C                 13.43346864   -0.02033471    0.05265823
 C                 12.02925124   -0.14127408    0.17575137
 C                 11.32942005    0.62369056    1.15925728
 C                  9.92608379    0.50463730    1.27726614
 C                  9.21606799    1.27402791    2.27015242
 C                  7.82718923    1.14469061    2.36380164
 C                 17.59846089   -2.96040966   -3.99075385
 C                 16.23195034   -3.09328010   -3.88138117
 C                 15.51083325   -2.32061964   -2.89017729
 C                 14.12079818   -2.44131605   -2.76743161
 C                 13.41146158   -1.67495128   -1.78587481
 C                 12.01295380   -1.79195792   -1.66400425
 C                 11.30983081   -1.02671930   -0.68488284
 C                  9.90599024   -1.13883739   -0.56644727
 C                  9.20774710   -0.37340771    0.41325273
 C                  7.79862604   -0.48052049    0.52376110
 C                  7.09472737    0.28881034    1.50779897
 C                  5.68856420    0.17238855    1.58309643
 C                 15.47009359   -3.98519288   -4.72873181
 C                 14.12466763   -4.10154523   -4.61026028
 C                 13.38078042   -3.33993619   -3.63025428
 C                 12.01349245   -3.44270177   -3.49970631
 C                 11.27977994   -2.68637899   -2.53096055
 C                  9.90007721   -2.78167431   -2.40191883
 C                  9.17503443   -2.02564281   -1.43888494
 C                  7.78520716   -2.10926156   -1.31338725
 C                  7.07294935   -1.35392445   -0.35174528
 C                  5.66630653   -1.42085349   -0.23729876
 C                  4.97474127   -0.66710119    0.71931524
 H                 24.55278251    2.43757369    0.62217304
 H                 22.43735370    3.07601376    1.74390548
 H                 20.32809758    3.71163032    2.86513020
 H                 18.21999677    4.34526061    3.98737083
 H                 16.11494935    4.98218493    5.11414234
 H                 13.67918728    4.75861206    5.33966975
 H                 11.55418904    3.73523580    4.60336642
 H                  9.42463770    2.72242033    3.86535714
 H                  7.29027684    1.72305041    3.11219299
 H                  5.15642962    0.73952988    2.34172048
 H                 24.52344794   -0.45536790   -2.56086406
 H                 22.39050162   -1.48918779   -3.28462769
 H                 20.26247632   -2.51809100   -4.00949718
 H                 18.13470308   -3.54241723   -4.73725320
 H                 16.00932970   -4.56637395   -5.47281032
 H                 13.57155194   -4.77722520   -5.25810716
 H                 11.46288972   -4.11776239   -4.15134740
 H                  9.34936097   -3.45324570   -3.05665347
 H                  7.23172978   -2.77457451   -1.97173994
 H                  5.12023152   -2.06176196   -0.92355697
 H                 25.75412366    1.10402807   -1.08333879
 C                 -5.10199006   -0.31195107    0.55853003
 C                 -5.71733636    0.74030548   -0.13369480
 C                 -5.90460097   -1.28520502    1.16954228
 C                 -7.12221940    0.84790504   -0.23054860
 H                 -5.10551308    1.48158308   -0.63978234
 C                 -7.31570534   -1.23785633    1.09820487
 H                 -5.44057623   -2.08766771    1.73607544
 C                 -7.75013382    1.90849612   -0.92565939
 C                 -7.93621403   -0.15655431    0.38905155
 C                 -8.13632436   -2.21917822    1.70394370
 C                 -9.14074321    2.00791559   -1.02591377
 H                 -7.12926222    2.66858103   -1.39444274
 C                 -9.34870796   -0.08233111    0.29714036
 C                 -9.53160697   -2.17250542    1.62296518
 H                 -7.66433540   -3.03731463    2.24321711
 C                 -9.78099820    3.07369950   -1.71762863
 C                 -9.96181400    0.99496948   -0.40829123
 C                -10.15650000   -1.08640547    0.90732427
 C                -10.36417064   -3.16143379    2.21774078
 C                -11.16312446    3.16478050   -1.81948651
 H                 -9.16180764    3.83880281   -2.18066064
 C                -11.36976944    1.06878384   -0.50503407
 C                -11.56485746   -1.01939627    0.80905387
 C                -11.74961996   -3.11468331    2.12737019
 H                 -9.89374386   -3.98082892    2.75665327
 C                -11.81194577    4.23525795   -2.51354959
 C                -11.98748217    2.14699453   -1.20848190
 C                -12.17948086    0.05951578    0.10138487
 C                -12.37722206   -2.02696917    1.41166809
 C                -12.59106285   -4.11094945    2.71756034
 C                -13.18267804    4.31914011   -2.61812121
 H                -11.19226318    5.00321788   -2.97160913
 C                -13.39075382    2.21762947   -1.30833299
 C                -13.58892483    0.12708997   -0.00097526
 C                -13.78066919   -1.96323922    1.30751173
 C                -13.96435598   -4.06393917    2.62194063
 H                -12.11991291   -4.93053604    3.25592552
 C                -13.84104297    5.39985483   -3.31982923
 C                -14.01438545    3.29876932   -2.01282235
 C                -14.20311096    1.20561228   -0.70642387
 C                -14.39792317   -0.88415924    0.59939902
 C                -14.59926871   -2.97571937    1.90615948
 C                -14.81699017   -5.07202736    3.21401835
 C                -15.19151817    5.46491812   -3.41776825
 H                -13.21870179    6.16774695   -3.77284119
 C                -15.40968076    3.36525666   -2.11485301
 C                -15.61108414    1.27150198   -0.81127245
 C                -15.80585687   -0.81965992    0.49234775
 C                -15.99441119   -2.91312319    1.79811840
 C                -16.16718280   -5.01214807    3.10845938
 H                -14.34266299   -5.88959869    3.75137502
 C                -16.04422958    4.45665997   -2.82611578
 H                -15.66601728    6.28575988   -3.94995791
 C                -16.22825753    2.35197001   -1.51729956
 C                -16.42000776    0.25845361   -0.21374174
 C                -16.61804340   -1.83443730    1.08976445
 C                -16.82565954   -3.93641953    2.39910764
 H                -16.78918038   -5.78096929    3.56034728
 C                -17.41742951    4.50506102   -2.91996396
 C                -17.63162141    2.41456228   -1.62322515
 C                -17.82918762    0.32198420   -0.32254515
 C                -18.02106486   -1.77047137    0.97912760
 C                -18.19588211   -3.86088158    2.28161082
 C                -18.25827411    3.50501245   -2.33573947
 H                -17.88890384    5.32662913   -3.45498775
 C                -18.44377476    1.40145936   -1.02904913
 C                -18.63870736   -0.69374444    0.27305624
 C                -18.84446391   -2.79541668    1.57961882
 H                -18.81527233   -4.63228025    2.73421541
 C                -19.64313156    3.54850141   -2.43171056
 C                -19.85184097    1.46176091   -1.13799998
 C                -20.04637203   -0.62958030    0.16060056
 C                -20.22583344   -2.71640966    1.45837188
 C                -20.47431375    2.55079746   -1.85082267
 H                -20.11403972    4.36940688   -2.96787160
 C                -20.66020478    0.44728662   -0.54510679
 C                -20.86547972   -1.65488547    0.75984877
 H                -20.84474307   -3.48843096    1.91012860
 C                -21.86846360    2.58922444   -1.94724436
 C                -22.07292113    0.50888605   -0.65760174
 C                -22.25544569   -1.57180926    0.63464932
 C                -22.68860129    1.59324587   -1.36806571
 H                -22.33992471    3.40939820   -2.48396440
 C                -22.88451789   -0.51331283   -0.06108701
 H                -22.87490359   -2.34391914    1.08541147
 C                -24.10030384    1.62746115   -1.46423875
 C                -24.29123819   -0.42541764   -0.19079634
 C                -24.88017146    0.63060265   -0.88248689
 H                -24.57139812    2.44665828   -2.00109459
 H                -24.91032614   -1.19717577    0.25905437
 H                -25.96234285    0.67747357   -0.96916794
