26
 C                  3.51593343   -0.00007361    0.00018401
 C                  2.82716588   -1.21070366    0.00018401
 C                  1.42644263   -1.22888320    0.00018401
 C                  0.71665643   -0.00001293    0.00014601
 C                  1.42653712    1.22884759    0.00011601
 C                  2.82719480    1.21064718    0.00021901
 C                  0.67824890   -2.45886558    0.00011901
 C                 -0.71666419   -0.00001836   -0.00007299
 C                 -1.42651083   -1.22884533   -0.00010799
 C                 -0.67835056   -2.45884436    0.00003001
 C                 -2.82724741   -1.21063800   -0.00026499
 H                 -3.38247480   -2.16052565   -0.00023299
 C                 -3.51593744    0.00002868   -0.00041599
 C                 -2.82713676    1.21071696   -0.00044299
 C                 -1.42647439    1.22888857   -0.00023499
 C                 -0.67822400    2.45887552   -0.00002499
 C                  0.67835761    2.45885527    0.00013001
 H                  1.24697568    3.40156976    0.00065301
 H                 -1.24674098    3.40165404   -0.00010699
 H                  1.24688230   -3.40154465    0.00041501
 H                  4.61640294   -0.00003613    0.00044701
 H                  3.38237263   -2.16057401    0.00027801
 H                  3.38237904    2.16053177    0.00059901
 H                 -1.24686449   -3.40159625    0.00031701
 H                 -4.61643397    0.00011357   -0.00039099
 H                 -3.38244578    2.16055921   -0.00046099
